59

C	-0.068943	-0.450679	-1.666358
C	-1.072420	-1.304942	-2.153079
C	-0.492808	0.721848	-1.024352
C	-2.403400	-1.007112	-1.998218
H	-0.766702	-2.226385	-2.637318
N	1.257336	-0.774643	-1.768737
C	-1.816557	1.054877	-0.861234
O	0.438728	1.577673	-0.507393
C	-2.822674	0.188115	-1.342177
H	-3.138654	-1.716074	-2.352131
C	2.135311	0.025187	-1.247557
H	-2.046251	1.979543	-0.351850
C	1.757013	1.268623	-0.583736
N	-4.138453	0.483479	-1.172823
C	3.562564	-0.307434	-1.280327
C	2.647035	2.115445	-0.021610
C	-4.568852	1.570502	-0.299153
C	-5.202207	-0.311498	-1.777007
C	4.495928	0.558611	-0.688544
C	4.008459	-1.490981	-1.878761
C	4.065990	1.823661	-0.030101
H	2.310231	3.020685	0.468908
C	-4.674367	2.909842	-1.021901
H	-3.895282	1.626904	0.559067
H	-5.544124	1.289405	0.107214
C	-5.671449	-1.462704	-0.892954
H	-4.870909	-0.676000	-2.751998
H	-6.034187	0.369549	-1.980287
C	5.853047	0.232013	-0.704350
C	5.357193	-1.802819	-1.888584
H	3.280617	-2.155468	-2.329352
O	4.886320	2.577914	0.495903
H	-5.020447	3.687654	-0.334611
H	-5.385925	2.844938	-1.850826
H	-3.708136	3.218120	-1.431125
H	-4.846634	-2.135936	-0.649306
H	-6.460265	-2.028822	-1.397897
H	-6.069740	-1.084218	0.052681
C	6.285726	-0.940259	-1.300017
H	6.549776	0.919249	-0.237826
H	5.692395	-2.723566	-2.355219
H	7.341760	-1.189666	-1.309151
N	-2.744254	-1.616838	1.395700
C	-1.372971	-1.311544	1.622545
O	-3.580648	-0.768216	1.699373
O	-3.033818	-2.712773	0.913205
C	-0.389398	-2.206996	1.260893
C	-0.959675	-0.073994	2.199006
C	0.983057	-1.979234	1.442058
H	-0.705616	-3.136872	0.804698
C	0.440211	0.156182	2.380515
N	-1.602591	0.995321	2.611725
C	1.454911	-0.803207	2.010312
H	1.689698	-2.733723	1.118505
N	0.614018	1.346950	2.890670
O	-0.622134	1.853699	3.031669
N	2.744310	-0.512738	2.211219
H	3.024633	0.377581	2.595849
H	3.472940	-1.151763	1.927379
