75

C         -0.09869       -0.27953       -1.84849
C         -1.10217       -1.13379       -2.33521
C         -0.52255        0.89300       -1.20649
C         -2.43315       -0.83596       -2.18035
H         -0.79645       -2.05524       -2.81945
N          1.22759       -0.60349       -1.95087
C         -1.84630        1.22603       -1.04337
O          0.40898        1.74882       -0.68953
C         -2.85242        0.35926       -1.52431
H         -3.16840       -1.54493       -2.53427
C          2.10556        0.19634       -1.42969
H         -2.07600        2.15069       -0.53399
C          1.72727        1.43977       -0.76587
N         -4.16820        0.65463       -1.35496
C          3.53282       -0.13629       -1.46246
C          2.61729        2.28659       -0.20375
C         -4.59860        1.74165       -0.48129
C         -5.23195       -0.14035       -1.95914
C          4.46618        0.72976       -0.87068
C          3.97871       -1.31983       -2.06090
C          4.03624        1.99481       -0.21224
H          2.28048        3.19183        0.28677
C         -4.70411        3.08099       -1.20404
H         -3.92503        1.79805        0.37693
H         -5.57387        1.46055       -0.07492
C         -5.70120       -1.29156       -1.07509
H         -4.90066       -0.50485       -2.93413
H         -6.06393        0.54070       -2.16242
C          5.82330        0.40316       -0.88649
C          5.32745       -1.63167       -2.07072
H          3.25087       -1.98432       -2.51149
O          4.85657        2.74906        0.31377
H         -5.05019        3.85880       -0.51675
H         -5.41567        3.01609       -2.03296
H         -3.73788        3.38927       -1.61326
H         -4.87638       -1.96479       -0.83144
H         -6.49001       -1.85767       -1.58003
H         -6.09949       -0.91307       -0.12945
C          6.25598       -0.76911       -1.48215
H          6.52003        1.09040       -0.41996
H          5.66265       -2.55242       -2.53735
H          7.31201       -1.01852       -1.49129
N         -2.77400       -1.44569        1.21356
C         -1.40272       -1.14040        1.44041
O         -3.61039       -0.59707        1.51724
O         -3.06356       -2.54162        0.73107
C         -0.41914       -2.03585        1.07876
C         -0.98942        0.09715        2.01687
C          0.95331       -1.80809        1.25992
H         -0.73536       -2.96572        0.62256
C          0.41046        0.32733        2.19838
N         -1.63234        1.16647        2.42959
C          1.42516       -0.63206        1.82818
H          1.65995       -2.56257        0.93637
N          0.58427        1.51810        2.70853
O         -0.65188        2.02485        2.84953
N          2.71456       -0.34159        2.02908
H          2.99489        0.54873        2.41371
H          3.44319       -0.98061        1.74524
C          0.76392       -3.27470        3.15729
C          1.70931       -3.82210        3.71854
H          0.97373       -3.18382        2.11201
H          0.61470       -2.30183        3.57702
H         -0.12032       -3.86153        3.29389
H          2.59354       -3.23526        3.58194
H          1.85853       -4.79496        3.29881
H          1.49950       -3.91297        4.76382
C         -3.69143       -3.13394        3.11850
C         -5.04880       -3.30355        3.33373
H         -3.15187       -3.91634        3.61004
H         -3.38362       -2.18731        3.51098
H         -3.48997       -3.16711        2.06816
H         -5.25025       -3.27038        4.38408
H         -5.35661       -4.25017        2.94125
H         -5.58837       -2.52115        2.84219
